[TITLE]
;;Project Title/Notes

[OPTIONS]
;;Option             Value
FLOW_UNITS           LPS
INFILTRATION         HORTON
FLOW_ROUTING         DYNWAVE
LINK_OFFSETS         DEPTH
MIN_SLOPE            0
ALLOW_PONDING        NO
SKIP_STEADY_STATE    YES

START_DATE           01/01/2000
START_TIME           00:00:00
REPORT_START_DATE    01/01/2000
REPORT_START_TIME    00:00:00
END_DATE             01/02/2000
END_TIME             00:00:00
SWEEP_START          01/01
SWEEP_END            12/31
DRY_DAYS             0
REPORT_STEP          00:01:00
WET_STEP             00:01:00
DRY_STEP             00:01:00
ROUTING_STEP         0:00:05 
RULE_STEP            00:00:00

INERTIAL_DAMPING     PARTIAL
NORMAL_FLOW_LIMITED  BOTH
FORCE_MAIN_EQUATION  D-W
VARIABLE_STEP        0.75
LENGTHENING_STEP     0
MIN_SURFAREA         1.14
MAX_TRIALS           8
HEAD_TOLERANCE       0.0015
SYS_FLOW_TOL         5
LAT_FLOW_TOL         5
MINIMUM_STEP         0.5
THREADS              4

[EVAPORATION]
;;Data Source    Parameters
;;-------------- ----------------
CONSTANT         0.0
DRY_ONLY         NO

[RAINGAGES]
;;Name           Format    Interval SCF      Source    
;;-------------- --------- ------ ------ ----------
Raingage         VOLUME    0:05     1.0      FILE       "r_15_1_Kematen.dat" 1          MM   

[SUBCATCHMENTS]
;;Name           Rain Gage        Outlet           Area     %Imperv  Width    %Slope   CurbLen  SnowPack        
;;-------------- ---------------- ---------------- -------- -------- -------- -------- -------- ----------------
.385             Raingage         O7               0.0579   25       24.062   6.045    0                        
.388             Raingage         G5               0.026    25       16.125   5.611    0                        
.389             Raingage         Gb2              0.026    25       16.155   1.239    0                        
.415             Raingage         H2               0.5391   25       73.423   3.993    0                        
.416             Raingage         C29              0.2721   37.736   67.5     2.927    0                        
.417             Raingage         A29              0.0395   25       19.875   5.319    0                        
.418             Raingage         F5               0.069    25       26.306   2.903    0                        
.421             Raingage         C25              0.1271   18.868   46.133   4.23     0                        
.422             Raingage         C26              0.1072   18.868   42.367   3.158    0                        
.423             Raingage         C24              0.0681   18.868   33.768   4.451    0                        
.424             Raingage         C23a             0.0865   18.868   38.057   12.251   0                        
.425             Raingage         C23              0.0729   18.868   34.937   9.093    0                        
.426             Raingage         Aa2              0.082    25       28.671   5.161    0                        
.427             Raingage         G7               0.078    25       28       7.064    0                        
.428             Raingage         Aa2              0.042    25       20.445   4.891    0                        
.430             Raingage         Gb2              0.104    25       32.218   4.16     0                        
.431             Raingage         Ga1              0.065    25       25.515   4.283    0                        
.432             Raingage         G3               0.057    25       23.833   4.631    0                        
.433             Raingage         G4               0.048    25       21.977   4.293    0                        
.434             Raingage         G5               0.07     25       26.439   4.468    0                        
.435             Raingage         G5               0.052    25       22.825   6.142    0                        
.436             Raingage         G6               0.051    25       22.605   4.539    0                        
.437             Raingage         G6               0.07     25       26.458   5.819    0                        
.438/1           Raingage         C12_alt          0.0507   18.868   29.138   4.196    0                        
.438/2           Raingage         C12_alt          0.0507   18.868   29.138   8.054    0                        
.439/1           Raingage         C12_alt          0.0631   18.868   32.506   2.096    0                        
.439/2           Raingage         C12_alt          0.0393   18.868   25.653   2.107    0                        
.440             Raingage         C11_alt          0.0853   18.868   37.794   3.292    0                        
.441             Raingage         C11_alt          0.0694   18.868   34.088   2.854    0                        
.444             Raingage         C08              0.082    18.868   37.055   3.569    0                        
.445             Raingage         C07              0.081    18.868   36.827   3.325    0                        
.446             Raingage         Ab3              0.0026   25       5.099    4.44     0                        
.447             Raingage         F7               0.063    25       25.06    4.008    0                        
.448             Raingage         F2               0.074    25       27.295   1.791    0                        
.449             Raingage         C06              0.0605   18.868   31.829   2.28     0                        
.450             Raingage         Be2a             0.052    25       22.782   5.253    0                        
.451             Raingage         C01              0.0643   18.868   32.811   2.916    0                        
.453             Raingage         PWE1             0.0844   18.868   37.593   1.571    0                        
.454             Raingage         not_connected    0.2574   0        50.735   3.331    0                        
.455             Raingage         not_connected    0.1632   0        40.398   2.801    0                        
.456             Raingage         C23b             0.047    18.868   28.053   8.307    0                        
.459             Raingage         F4               0.068    25       26.134   3.7      0                        
.460             Raingage         D22              0.0658   18.868   33.194   5.016    0                        
.462             Raingage         D02              0.1507   18.868   50.233   1.642    0                        
.463/1           Raingage         C06              0.0397   18.868   25.783   2.841    0                        
.463/2           Raingage         C05              0.0397   18.868   25.783   2.94     0                        
.465             Raingage         Ca1              0.0921   18.868   39.27    2.566    0                        
.466/1           Raingage         Db2              0.1733   30.189   53.867   4.149    0                        
.466/2           Raingage         not_connected    0.0544   0        23.324   4.091    0                        
.466/3           Raingage         not_connected    0.0563   0        23.728   3.092    0                        
.467             Raingage         Ad9              0.0449   25       21.19    3.817    0                        
.468             Raingage         PS1              0.0698   18.868   34.187   6.26     0                        
.469             Raingage         PS3              0.1184   18.868   44.525   3.378    0                        
.470             Raingage         Db4              0.0651   18.868   33.017   7.696    0                        
.471             Raingage         Db4              0.0519   18.868   29.48    6.467    0                        
.472             Raingage         PS4              0.082    18.868   37.055   2.604    0                        
.473             Raingage         PS4              0.061    18.868   31.959   2.42     0                        
.474             Raingage         C23b             0.0564   18.868   30.732   8.697    0                        
.475             Raingage         C24              0.1884   18.868   56.167   8.773    0                        
.477             Raingage         C27a             0.0072   18.868   10.979   0        0                        
.479             Raingage         Ad3              0.0584   25       24.166   7.65     0                        
.480             Raingage         A43a             0.1187   25       34.453   3.502    0                        
.481             Raingage         A41              0.2133   25       46.184   3.842    0                        
.483             Raingage         A42              0.1206   25       34.728   3.449    0                        
.484             Raingage         A43              0.0658   25       25.652   10.39    0                        
.485             Raingage         not_connected    0.0283   0        16.823   8.873    0                        
.486/1           Raingage         K3               0.0632   25       25.14    3.233    0                        
.486/2           Raingage         K2               0.0072   25       8.485    2.46     0                        
.487             Raingage         Ka1              0.0677   25       26.019   3.876    0                        
.488             Raingage         K3a              0.0493   25       22.204   5.468    0                        
.489             Raingage         Ka1              0.0485   25       22.023   3.901    0                        
.490             Raingage         K2               0.0089   25       9.434    3.44     0                        
.491             Raingage         K1               0.0187   25       13.675   4.063    0                        
.492             Raingage         A39a             0.0144   25       12       3.132    0                        
.493             Raingage         A39              0.0372   25       19.287   5.129    0                        
.494             Raingage         Ac2              0.0737   25       27.148   5.643    0                        
.495             Raingage         Ac2              0.4177   25       64.63    4.031    0                        
.496             Raingage         Ac2              0.0107   25       10.344   5.572    0                        
.500             Raingage         C27a             0.1107   18.868   43.054   5.442    0                        
.501             Raingage         C29              0.0041   18.868   8.286    3.132    0                        
.503             Raingage         Aa2              0.031    25       17.55    8.373    0                        
.504/1           Raingage         J5               0.1352   25       36.77    7.094    0                        
.504/2           Raingage         J5               0.185    25       43.012   6.879    0                        
.505             Raingage         C15              0.0076   18.868   11.281   7.658    0                        
.507             Raingage         H7               0.1005   25       31.702   5.931    0                        
.508             Raingage         H6               0.0453   25       21.284   3.37     0                        
.511             Raingage         A38              0.0566   25       23.791   4.44     0                        
.512             Raingage         A39              0.0557   25       23.601   2.876    0                        
.513             Raingage         H7a              0.0108   25       10.392   2.439    0                        
.514             Raingage         H9               0.0529   25       23       4.452    0                        
.515             Raingage         H8               0.0608   25       24.658   5.889    0                        
.516             Raingage         H7               0.1331   25       36.483   5.475    0                        
.522             Raingage         H19              0.0392   20       19.799   19.657   0                        
.523/1           Raingage         Ha1              0.1273   25       35.679   5.755    0                        
.523/2           Raingage         Ha2              0.1821   25       42.673   2.357    0                        
.525             Raingage         H11              0.1729   25       41.581   6.562    0                        
.526             Raingage         H10a             0.0892   25       29.866   7.566    0                        
.528             Raingage         Ka1              0.0953   25       30.871   4.984    0                        
.529             Raingage         K1b              0.1593   25       39.912   4.453    0                        
.531             Raingage         C01              0.0103   18.868   13.133   2.46     0                        
.535             Raingage         C17_alt          0.0138   18.868   15.2     5.175    0                        
.536             Raingage         C20              0.0133   18.868   14.924   6.965    0                        
.537             Raingage         C16_alt          0.0136   18.868   15.091   5.91     0                        
.538             Raingage         C17              0.0236   18.868   19.879   7.629    0                        
.539             Raingage         C15_alt          0.0173   18.868   17.019   7.149    0                        
.540             Raingage         C15_alt          0.0152   18.868   15.953   5.572    0                        
.541             Raingage         C15              0.0192   18.868   17.929   1.23     0                        
.542             Raingage         C15              0.0233   18.868   19.751   4.006    0                        
.543             Raingage         K1b              0.0683   25       26.134   6.903    0                        
.544             Raingage         B08              0.106    25       32.558   3.056    0                        
.547             Raingage         K1               0.0089   25       9.434    2.96     0                        
.552             Raingage         H14              0.0451   25       21.237   4.569    0                        
.553             Raingage         K2               0.0102   25       10.1     2.439    0                        
.554             Raingage         H13              0.0272   25       16.492   2.851    0                        
.557             Raingage         H18              0.048    20       21.909   13.57    0                        
.558             Raingage         H18              0.06     20       24.495   2.785    0                        
.559             Raingage         H19              0.0665   20       25.788   10.351   0                        
.561             Raingage         K5               0.0487   25       22.068   3.399    0                        
.562             Raingage         K8               0.2072   25       45.519   4.709    0                        
.563             Raingage         K11              0.0736   10       27.129   6.523    0                        
.564             Raingage         K10              0.1291   25       35.93    6.98     0                        
.565             Raingage         H20              0.0525   25       22.913   13.026   0                        
.566             Raingage         M1               0.1684   25       41.037   5.574    0                        
.567             Raingage         Aa2              0.022    25       14.967   4.846    0                        
.569             Raingage         M4               0.0329   25       18.138   6.185    0                        
.570             Raingage         M3               0.0322   25       17.944   6.169    0                        
.571             Raingage         M2               0.0605   25       24.597   4.765    0                        
.572             Raingage         M2               0.0573   25       23.937   5.413    0                        
.573             Raingage         M1               0.0372   25       19.287   2.335    0                        
.574             Raingage         M1               0.0751   25       27.404   3.877    0                        
.575/1           Raingage         K13              0.1978   10       44.475   3.967    0                        
.575/2           Raingage         O5               0.1515   10       38.923   4.908    0                        
.576             Raingage         O3               0.0769   10       27.731   4.611    0                        
.577             Raingage         K12              0.0921   10       30.348   4.067    0                        
.578             Raingage         K12              0.0788   10       28.071   4.717    0                        
.579             Raingage         K10a             0.0752   10       27.423   6.002    0                        
.580             Raingage         K10              0.0723   10       26.889   3.311    0                        
.581/1           Raingage         O3               0.0503   10       22.428   3.953    0                        
.581/2           Raingage         O2               0.0421   10       20.518   3.946    0                        
.582             Raingage         K9               0.0558   10       23.622   5.383    0                        
.583             Raingage         not_connected    0.0992   0        31.496   4.911    0                        
.584             Raingage         K8               0.2667   25       51.643   4.305    0                        
.585             Raingage         K6               0.0656   25       25.612   8.203    0                        
.587             Raingage         Aa2              0.015    25       12.083   1.74     0                        
.588             Raingage         A44a             0.083    25       28.81    4.894    0                        
.590             Raingage         C14_alt          0.0222   18.868   19.281   6.337    0                        
.592             Raingage         C13              0.0388   18.868   25.489   6.459    0                        
.593             Raingage         Ad8              0.109    25       33.015   3.853    0                        
.594             Raingage         K20              0.0339   25       18.412   5.899    0                        
.595             Raingage         K20              0.027    25       16.432   5.583    0                        
.596             Raingage         K20              0.0494   25       22.226   4.052    0                        
.597             Raingage         K20              0.0419   25       20.469   4.8      0                        
.598             Raingage         K19              0.054    25       23.238   10.196   0                        
.599             Raingage         K18              0.06     25       24.495   5.404    0                        
.600             Raingage         K15              0.0578   10       24.042   6.109    0                        
.601             Raingage         O6               0.0585   10       24.187   2.562    0                        
.602             Raingage         K23              0.0372   25       19.287   7.006    0                        
.603             Raingage         K24              0.3342   40       57.81    5.268    0                        
.604             Raingage         O6               0.0467   10       21.61    5.436    0                        
.607             Raingage         V                0.5045   70       71.028   4.32     0                        
.608             Raingage         V                0.1063   70       32.604   6.31     0                        
.610             Raingage         V                0.3101   70       55.687   15.015   0                        
.611             Raingage         V                0.0478   25       21.863   11.299   0                        
.612             Raingage         V                0.3151   40       56.134   6.297    0                        
.614             Raingage         C13              0.0159   18.868   16.318   9.35     0                        
.615             Raingage         D18              0.0874   18.868   38.254   7.777    0                        
.616             Raingage         D26              0.0213   18.868   18.886   4.871    0                        
.617             Raingage         D25              0.0337   18.868   23.756   2.511    0                        
.618             Raingage         D24              0.0184   18.868   17.554   1.158    0                        
.619             Raingage         D25              0.0135   18.868   15.035   2.95     0                        
.620             Raingage         D25              0.0147   18.868   15.688   10.439   0                        
.621             Raingage         D26              0.0145   18.868   15.583   1.98     0                        
.622             Raingage         D22alt           0.0158   18.868   16.265   3.832    0                        
.623             Raingage         D23alt           0.022    18.868   19.192   5.58     0                        
.624             Raingage         D23alt           0.0156   18.868   16.162   6.89     0                        
.625             Raingage         D23alt           0.0155   18.868   16.111   6.928    0                        
.626             Raingage         D24alt           0.0153   18.868   16.004   6.41     0                        
.627             Raingage         D24alt           0.0148   18.868   15.743   4.182    0                        
.628             Raingage         D24alt           0.0231   18.868   19.668   3.96     0                        
.629             Raingage         D23alt           0.0449   18.868   27.42    1.432    0                        
.630             Raingage         Ab2              0.0817   25       28.583   15.36    0                        
.631             Raingage         A29              0.0698   25       26.42    3.55     0                        
.633             Raingage         Ca2              0.0731   18.868   34.986   4.624    0                        
.634             Raingage         Ca1              0.0595   18.868   31.565   5.179    0                        
.636             Raingage         F4               0.033    25       18.193   6.142    0                        
.638             Raingage         C23b             0.0809   18.868   36.805   2.078    0                        
.649             Raingage         K6               0.1195   25       34.569   4.63     0                        
.650             Raingage         L10              0.0275   25       16.583   13.137   0                        
.651             Raingage         K26              0.2362   25       48.6     6.236    0                        
.652/1           Raingage         K27              0.1496   25       38.678   7.909    0                        
.652/2           Raingage         not_connected    0.1763   0        41.988   8.827    0                        
.652/3           Raingage         K27              0.1169   25       34.191   3.901    0                        
.653             Raingage         V                0.7376   50       85.884   8.193    0                        
.654             Raingage         V                0.5976   40       77.305   3.871    0                        
2240             Raingage         J3               0.2485   25       49.85    5.078    0                        
2241             Raingage         not_connected    0.1767   0        42.036   2.832    0                        
2256             Raingage         not_connected    3.9106   0        197.752  2.887    0                        
2260/2           Raingage         A28              0.066    25       25.69    6.991    0                        
2260/4           Raingage         A29              0.0529   25       23       5.306    0                        
2260/5           Raingage         not_connected    0.0173   25       13.153   4.93     0                        
;street
2263             Raingage         C27              0.0568   67.925   30.839   3.933    0                        
2264             Raingage         A30              0.1753   25       41.869   3.604    0                        
;street
2266             Raingage         A29              0.009    90       9.487    3.833    0                        
;street
2267             Raingage         Ab2              0.0134   90       11.576   4.879    0                        
2270             Raingage         C17_alt          0.0759   18.868   35.649   6.831    0                        
2271             Raingage         Ab3              0.1138   25       33.734   12.507   0                        
2272             Raingage         not_connected    0.4163   0        64.521   7.242    0                        
2273             Raingage         Aa2              0.015    25       12.41    7.88     0                        
2274             Raingage         not_connected    0.0339   0        18.412   6.969    0                        
2275             Raingage         not_connected    0.0445   0        21.095   7.058    0                        
2276             Raingage         not_connected    0.0187   0        13.675   16.25    0                        
2277             Raingage         Aa2              0.035    25       18.682   0.74     0                        
2279             Raingage         Ab2              0.0828   25       28.775   4.07     0                        
2281/1           Raingage         not_connected    0.0843   25       29.034   3.554    0                        
2281/2           Raingage         not_connected    0.0739   25       27.185   3.045    0                        
2281/3           Raingage         Ab3              0.0812   25       28.496   11.428   0                        
2282             Raingage         Ab1              0.0891   25       29.85    3.385    0                        
2283             Raingage         Aa1              0.07     25       26.514   7.043    0                        
2285             Raingage         C13              0.3851   18.868   80.301   6.131    0                        
2288             Raingage         Aa1              0.208    25       45.64    5.26     0                        
;street
2291/1           Raingage         not_connected    1.2475   0        111.692  6.068    0                        
2291/3           Raingage         G7               0.214    25       46.271   5.899    0                        
2291/4           Raingage         not_connected    0.0763   0        27.622   5.129    0                        
2291/5           Raingage         Gb1              0.065    25       25.456   12.734   0                        
2291/6           Raingage         Gb1              0.032    25       18       6.027    0                        
2291/7           Raingage         A22              0.029    25       17.029   3.522    0                        
2291/8           Raingage         Gb1              0.03     25       17.205   3.833    0                        
2292/1           Raingage         G5               0.011    25       10.583   5.226    0                        
2292/2           Raingage         G3               0.061    25       24.718   2.921    0                        
2292/3           Raingage         Gb1              0.06     25       24.597   4.193    0                        
2292/4           Raingage         Gb1              0.056    25       23.728   4.861    0                        
2293             Raingage         G1               0.097    25       31.145   3.43     0                        
2294             Raingage         G1a              0.074    25       27.24    4.016    0                        
2304             Raingage         not_connected    0.6444   0        80.275   4.875    0                        
2307             Raingage         C11_alt          0.1002   18.868   40.96    3.41     0                        
2308             Raingage         C10_alt          0.0647   18.868   32.914   4.333    0                        
2309             Raingage         C10_alt          0.1502   18.868   50.15    4.026    0                        
2310/1           Raingage         C9_alt           0.07     18.868   34.237   1.678    0                        
2310/2           Raingage         Ga2              0.058    25       24.187   2.273    0                        
2311             Raingage         PS4              0.0846   18.868   37.637   2.911    0                        
2312             Raingage         not_connected    0.081    0        28.46    2.838    0                        
2314             Raingage         F2               0.06     25       24.434   5.908    0                        
2315/1           Raingage         not_connected    0.0653   0        25.554   1.247    0                        
2315/2           Raingage         F4               0.026    25       16.279   6.155    0                        
2315/3           Raingage         F4               0.006    25       8        4.92     0                        
2315/4           Raingage         F3               0.065    25       25.554   2.431    0                        
2316             Raingage         F5               0.063    25       25.06    3.404    0                        
2317             Raingage         F6               0.063    25       25.06    3.011    0                        